          12
 Ord_Energy   -27.6242619    
 O    29.7298775       28.7905693       13.3669500    
 H    28.9162426       28.5478725       12.9321842    
 H    30.0577316       29.5761147       12.8979540    
 O    30.7100487       31.1541729       12.3198385    
 H    30.8583927       31.5918179       13.1748171    
 H    31.4290142       31.4305325       11.7571325    
 O    30.5369911       29.5953159       15.8858290    
 H    31.0147572       28.8934307       16.3205948    
 H    30.2152100       29.2193432       15.0493917    
 O    31.0747929       32.1162148       14.8860102    
 H    30.9203758       31.2690010       15.3364649    
 H    30.6916962       32.7844391       15.4487162    
          12
 Ord_Energy   -22.7146149    
 O   -5.53075600       10.3657351       9.81144714    
 H   -4.82172823       10.9135828       9.48520088    
 H   -5.27732801       9.44425201       9.62378311    
 O   -7.67931080       9.06865978       8.33719921    
 H   -8.51859760       9.09587860       8.79461098    
 H   -7.12696886       9.72836018       8.77828503    
 O   -6.43213892       8.73366070       12.0000134    
 H   -6.02779865       8.90147972       12.8491650    
 H   -6.18732929       9.48593712       11.4424953    
 O   -5.50095224       7.62536049       9.51926517    
 H   -5.82035398       7.64972496       10.4316378    
 H   -6.28217745       7.79054928       8.97363758    
          12
 Ord_Energy   -22.3836079    
 O   0.167683527       11.4692478       12.9632540    
 H  -0.367710412       12.2101908       13.2401342    
 H  -0.130690366       10.7190495       13.4956951    
 O    8.47390220E-02   9.25993824       11.1507835    
 H   0.226559624       10.1624985       11.4683495    
 H   0.864334106       8.76145649       11.4324284    
 O    1.83950174       7.79665470       12.8690920    
 H    2.05164051       6.89544296       13.1038704    
 H    1.08833706       8.04113102       13.4270363    
 O  -0.726602614       8.82399178       13.7488422    
 H   -1.57480764       8.43294907       13.9410343    
 H  -0.662101626       8.87823772       12.7782764    
          12
 Ord_Energy   -21.1561985    
 O   -5.48702192       10.9789057       9.36735535    
 H   -5.36201668       10.0658655       9.67956161    
 H   -4.63873243       11.2510233       9.02470875    
 O   -7.48075294       9.45928383       8.09337234    
 H   -6.88804913       10.1574326       8.41556168    
 H   -8.36410618       9.79893112       8.21794891    
 O   -6.68101454       6.85336304       12.1152859    
 H   -6.92389727       7.25150681       12.9514675    
 H   -6.52661467       5.92832756       12.3083668    
 O   -5.59515858       8.26714134       9.86116791    
 H   -6.31706095       8.37809372       9.22643566    
 H   -5.96611977       7.78967047       10.6112223    
          12
 Ord_Energy   -20.1573620    
 O    21.4001694       19.1616096       17.4745293    
 H    21.1034279       18.6227932       16.7340088    
 H    21.5966148       18.5507889       18.2017593    
 O    19.2530937       18.3622246       15.9859018    
 H    18.8588753       18.9546413       15.3466959    
 H    19.4650536       18.9176731       16.7465649    
 O    22.6112366       17.7904205       19.5876541    
 H    23.2494659       18.4851265       19.3582802    
 H    23.1244011       16.9935646       19.7005157    
 O    23.9178467       19.9684658       18.4025192    
 H    23.0865097       19.8768864       17.9094143    
 H    23.9781113       20.8917618       18.6380539    
          12
 Ord_Energy   -20.1261406    
 O    27.9445286       25.6461639       12.7237949    
 H    28.7711811       25.3404408       13.1311207    
 H    27.9257126       26.5917130       12.8542967    
 O    27.1957645       23.4466553       14.2912207    
 H    27.1936111       24.2129307       13.6950293    
 H    26.6796818       22.7745399       13.8517733    
 O    29.8613567       24.2703590       14.2310410    
 H    30.3965054       24.2264729       15.0289164    
 H    29.0313168       23.8078213       14.4249411    
 O    32.0994492       23.1253986       15.2876301    
 H    31.5492821       23.1621132       14.4945145    
 H    32.9621964       23.4271660       15.0059423    
          12
 Ord_Energy   -20.1100388    
 O   -5.79777861       9.92462063       12.4022264    
 H   -6.53713751       9.86146355       13.0055494    
 H   -5.58546877       10.8659344       12.3624992    
 O   -3.76429534       11.6936569       12.8294630    
 H   -3.63902068       11.9600210       13.7532902    
 H   -3.99725914       10.7599821       12.8391895    
 O   -1.43218029       13.2427683       12.8120775    
 H   -2.17742252       12.6749210       12.5575686    
 H   -1.40584123       13.9414854       12.1621275    
 O   -2.79755116       12.7860346       15.2118025    
 H   -2.17039728       13.0862112       14.5337219    
 H   -2.26423693       12.5217218       15.9578657    
          12
 Ord_Energy   -20.0915661    
 O    18.0583973       14.8584242       14.3951626    
 H    17.8425713       14.9299498       15.3222265    
 H    17.2982998       15.2313070       13.9193230    
 O    19.1928864       16.5167694       12.4548330    
 H    19.8694420       16.1286640       11.8908482    
 H    19.0469952       15.8944988       13.1834898    
 O    16.4054756       16.3082943       12.6647644    
 H    17.3044395       16.5645752       12.4028130    
 H    15.9268646       16.1711903       11.8503962    
 O    21.6996994       16.8862724       11.4547844    
 H    21.0317459       17.2987785       12.0175734    
 H    22.4651012       16.7744141       12.0172358    
          12
 Ord_Energy   -20.0008640    
 O    6.03437424      -2.87535620      -8.70135975    
 H    6.60670185      -2.45705724      -8.04515171    
 H    6.50582409      -2.79535127      -9.52970695    
 O    5.18159246     -0.535551071      -4.33672571    
 H    5.43410349      0.370577544      -4.57722521    
 H    5.34759092     -0.614267290      -3.40058708    
 O    6.20146227     -0.822353959      -6.91317034    
 H    5.60860395      -1.23520291      -7.54915857    
 H    5.81920624     -0.979532182      -6.03571892    
 O    6.16350031       1.70700133      -5.69605732    
 H    6.27890348      0.968324780      -6.31523228    
 H    6.93141317       2.26214314      -5.80871630    
          12
 Ord_Energy   -19.9902763    
 O   -5.27236843      -1.40601456      -2.88432240    
 H   -5.46596289      -1.14241982      -3.78996444    
 H   -4.83828926     -0.649056017      -2.46164775    
 O   -4.57165718      0.699521124      -1.19511712    
 H   -4.00386906      0.966021895     -0.476186305    
 H   -5.36626625      0.325453043     -0.780375123    
 O   -6.79103327     -0.885731936     -0.582287371    
 H   -6.44867897      -1.26580203      -1.40721941    
 H   -7.17426634      -1.61423278     -0.100020699    
 O   -4.67638063      -1.94532835      -5.48967075    
 H   -3.83469343      -1.65443397      -5.83860683    
 H   -4.49187374      -2.21762776      -4.58143330    
